30
Properties=species:S:1:pos:R:3:ref_forces:R:3 ref_energy=-21799.734921125186 pbc="F F F"
N       -3.43091915      -0.80841205      -2.01427696       2.47079445      -0.18391426       1.27946059
O       -0.90050313      -3.37384269      -1.07179353       1.39276658       1.62525511       1.56205672
C       -2.41549704      -0.91074572      -1.43650911      -2.03357506       0.27590220      -0.84995487
O        0.46495798      -2.04237435       0.33684482       1.14028463      -0.25570107       0.24407981
C       -0.58326767      -2.32885788      -0.52826927      -0.22663536      -0.44417305      -0.13995215
C       -1.21842633      -1.04731569      -0.63695738      -2.47722626       2.42099967      -0.97552808
C        0.54765814      -0.64556620       0.61836595       0.78383108      -1.15504817       0.70952940
C       -0.60042069      -0.00837395       0.02353587       0.69886056      -0.86436221      -1.26691108
C        1.55076994      -0.09624551       1.36336746       1.75572377      -1.96794058      -0.35815440
C       -1.06097946       4.26706769       0.20023056       2.16732363       3.41332864      -1.27655609
C        0.16472765       3.76057674      -0.15236078       1.37712419      -1.26003273      -1.26530946
C       -2.07845447       3.42270615       0.26433071      -4.27614802       0.33357727      -0.03592689
C        0.30831308       2.34862151      -0.29507694       0.90830755      -0.18241259       0.19290155
C       -2.02834747       2.06754972       0.14273660       0.46903062      -1.31236207       0.95664865
C       -0.77998588       1.46036454      -0.03131381       0.09068203       0.74471428      -0.12328086
N        2.75389101      -0.78515587       1.84406032      -3.11750594       1.43943417      -0.49082927
C        3.32282760      -0.28974060       3.11072852      -1.64159349      -0.83990536      -0.45384603
C        3.55363991      -1.49632857       0.88016885       1.48044750      -0.12029161       1.34063815
H        1.52341016       0.97805598       1.45128979      -0.20378154       0.08900476       0.59330879
H       -1.16772292       5.40212872       0.11475550      -0.18469356      -1.84058475       0.57663691
H        0.91656493       4.48419430      -0.54853055      -0.29434715      -1.04144018       0.78047866
H       -3.07872746       3.86809685       0.25382330       0.23021447      -0.22346742       0.52718050
H        1.29394653       1.88637187      -0.60856090      -1.35365367       0.82716047       0.39050269
H       -2.94421885       1.52617910       0.37919041       0.40518128      -0.19239393      -0.50910222
H        3.99262907      -1.03201173       3.50962498       0.03519088      -0.41969578       0.20910877
H        3.89017727       0.57498948       2.95266869       0.88019150       1.59124139      -0.11574856
H        2.49955346      -0.07787082       3.84061839       0.81452623      -0.29631866      -0.69212955
H        4.13134339      -2.24534223       1.42619499       0.20943108       0.14797849       0.00596466
H        2.99659874      -2.06804321       0.21601384      -1.47023560      -0.75982637      -1.07322644
H        4.25177791      -0.91535923       0.27041616      -0.02492934       0.44937521       0.26032672
25
Properties=species:S:1:pos:R:3:ref_forces:R:3 ref_energy=-24959.22686097695 pbc="F F F"
N        1.76252272       0.11788176       1.99760737       0.26130973       0.46520168      -1.59473905
S        0.21090754      -1.39797780       3.43454387      -0.00055157       0.92567396      -1.42991404
C        1.73742750      -0.63026557       3.01640370       1.85660395      -0.76715628       0.44406742
C       -1.25082264       1.81296231      -1.44483862       1.10952931       1.29264961      -2.20236371
C       -0.26174120       2.23188092      -2.27205322      -0.41951163      -0.95673483       0.51783361
C       -1.70039318      -0.73032842       1.39874246       1.16984523       2.17547040      -1.43151132
C       -1.95189498       0.10832446       0.24377473       0.18337936      -2.31287967       1.43479058
C        0.57101302       0.11537787       1.29578003      -0.19042898       0.71897061       0.41160256
C       -0.43514637      -0.58269546       1.94622149      -0.42358005      -1.32598717       0.70846075
C       -0.96867369       0.89534160      -0.39270047      -0.02057072      -1.30728610       2.25547331
C        0.33089994       0.82460021       0.11468082       0.45681485       0.05144711       0.12823983
C        3.09352162      -0.87998126       3.65614989      -0.21419796      -0.63885334       2.28061914
C        1.15087207       1.74716880      -2.12149499      -0.03008876       4.30014673       3.60266023
C        1.41749778       1.59807255      -0.57474158       1.14376363       0.42308695      -0.23608784
H       -2.23131392       2.22670033      -1.57377503      -0.43592866      -0.19913091      -0.02757983
H       -0.41058538       2.82896330      -3.14180872      -0.64460139       0.58604424      -0.24002155
H       -2.32940886      -1.43181679       1.89871433      -0.97968795      -0.02756010      -0.35838327
H       -2.86610577      -0.13590519      -0.24951337      -0.69442998       0.60826155      -0.30086488
H        3.66694810      -1.78910444       3.34064438      -0.82081661       0.86061498      -0.39718292
H        2.94061377      -1.08769057       4.74969151       0.22134148       0.38424172      -0.75756920
H        3.72141125       0.02383556       3.56479122      -0.41060418      -0.59237553      -0.12690338
H        1.33982434       0.97448720      -2.73730728       0.80123493      -3.02183276      -1.70144038
H        1.85032000       2.58416154      -2.38113830      -0.62827680      -0.75514304      -0.29410576
H        1.38892301       2.66998007      -0.12957660       0.31384968      -1.67660538      -0.74615962
H        2.45281317       1.13545712      -0.40936730      -1.60339181       0.79106729       0.05920607
22
Properties=species:S:1:pos:R:3:ref_forces:R:3 ref_energy=-63794.60481133227 pbc="F F F"
S       -2.13916061       2.01205256       2.08005681       0.03027630      -0.06265320       0.28881274
Cl       0.92727678      -0.37875852       5.82697870      -0.65649735       0.46302892      -1.25055162
Cl       0.86428120       2.90314748      -4.37337110       0.18135032      -0.18092343       0.14325757
Cl       1.48222335      -2.30237243      -3.15310976      -0.10634481       1.58789721      -0.02411760
N        1.19361635       0.41991825      -3.56384322       0.68063438      -1.04513505      -0.89539858
N        0.47637648       1.96370818      -1.96705720       0.19448792       1.46267826      -1.42042472
C       -0.77040897       1.14403733       2.46900108      -0.85752183       0.42887681      -0.11040320
C        1.52460100      -0.24854121       3.14043857      -1.64650426       0.96414037       0.25592791
C        1.33685424       0.15859278       1.74880626      -0.17869114      -0.38205354       1.98014014
C        0.59489855       0.04830225       4.14528396       0.95330122      -0.08085457      -1.71789919
C        0.21505057       0.83110391       1.42073103      -0.33476575       0.37039853      -0.58426072
C        0.88245481       1.66132369      -3.17732046      -0.40889003      -2.03467270       0.23889797
C        1.16112222      -0.60797475      -2.70068214      -0.78527877       1.85915359       0.84444204
C        0.44151535       0.97610070      -1.11855028      -0.33876525      -0.21986880       2.41307205
C        0.76547021      -0.33232675      -1.38088808       0.94145169      -1.12661633      -1.77234499
N       -0.57127283       0.74064360       3.78716328       1.63899868      -0.77062148      -0.63370885
N       -0.02094660       1.35530510       0.12412056      -0.74895789       0.33244752       1.64571090
H        2.44074609      -0.70962987       3.39666488       0.54703441      -0.44080274       0.37729537
H        2.09713330      -0.01982734       1.00863203       0.17952062      -0.16227323       0.09868874
H        0.70609244      -1.09298298      -0.64725218      -0.14989198      -0.45706480       0.48425765
H       -1.30899356       0.96147238       4.45863583       0.46963815      -0.07856690      -0.41361153
H       -0.65703175       2.15860441       0.11745986       0.39582920      -0.42694227       0.05528711
28
Properties=species:S:1:pos:R:3:ref_forces:R:3 ref_energy=-43282.16912397217 pbc="F F F"
O       -2.51554272      -1.63188407       4.09573223       0.60542822       3.70182140      -1.91817811
O       -3.66437576       0.32513448       2.82665159       3.26088915      -1.30014685       2.11008850
S        3.80674889       3.38385346      -0.92799960       0.56869091       0.55381453       0.05810138
N        2.24665465       0.91491498      -3.35858057      -0.99934633      -2.40684212      -1.50140337
O       -2.39559052       0.65439282       5.01753189      -0.75149458      -0.13451409      -2.16449972
C        3.14108612       2.16209473      -1.78900526      -0.09399873       0.15730838       0.45523365
C        1.90295162       0.39158768      -2.21421502      -0.34420529      -0.02112185      -1.67882469
C        1.37161436       0.36178590       2.30507042      -0.89581402      -1.84012229       1.20626055
C       -0.20579270       0.74160153       0.49879237       2.11680353      -0.48775374      -0.34589215
C        0.20615434      -0.03274123       3.13406279       3.28025178       1.53533598      -1.73155443
C       -1.23795555       0.43418850       1.26636149      -2.43554693       1.00036889       1.40468326
C        1.10521867       0.72426184       0.96261310       1.34499180       0.13049597       0.52932625
C       -1.02906058       0.15488507       2.63247754      -1.68733245      -0.45948094      -0.53830925
N        3.15536477       1.87732651      -3.16328738      -0.10141123       1.40554230       4.23944981
N        2.34165385       1.19423177      -1.21188019       0.55677164       0.74107930       0.46139646
N        2.20090141       1.11399992       0.15782600       0.31805766      -0.63750239       1.40201924
C        1.13739773      -0.88712201      -2.10543678       0.56081118       0.79315909       3.39460732
S       -2.47360084      -0.21470068       3.59093787      -3.77632256      -2.30769774       1.01644760
H       -3.31631038       1.01031085       5.00072720       0.85095928       0.03374335       0.36904777
H        2.41938927       0.09977048       2.72072889      -1.93153720       0.88843586      -0.99460569
H       -0.34750984       0.87575530      -0.51527319      -0.39451835       0.71926033      -1.84592190
H        0.33226108      -0.38758395       4.12279942       0.31395945      -0.22130789       0.74593778
H       -2.21952794       0.66971203       0.83168333       0.27390838      -0.77377402       0.66852978
H        3.20009353       2.77059414      -3.62358138      -0.18298473      -0.36500471      -1.25479928
H        2.88617517       1.65349307       0.68459730       0.17407490      -0.15178169      -0.90355811
H        1.58654739      -1.62335823      -2.70552990       0.62935444      -1.00177293      -0.42708682
H        1.02066909      -1.17764352      -0.99077151       0.57190201       0.15089182      -1.96543831
H        0.16134649      -0.74189959      -2.42607210      -1.83396353       0.29719250      -0.79122578
26
Properties=species:S:1:pos:R:3:ref_forces:R:3 ref_energy=-73302.451122313 pbc="F F F"
F        3.10046102      -3.09333680       0.89621156      -0.58641118       0.19515499       1.15848609
F        3.05449464      -1.69425056       2.58462550      -0.53963947      -0.60973056      -0.07112979
F        1.39293029      -3.17612789       2.34335806       1.45370431       0.78159105      -0.35326355
S        1.86009838       1.45808520      -3.76179979      -1.05159835      -0.49798447      -0.26349812
S        0.35377463       0.25530099      -4.53029678       1.08242426      -0.50349153       1.01887500
S        0.60621462       2.70417549      -2.62905118      -0.72211011       0.03976405       0.50894023
S        0.43833967      -1.34695265      -3.08127902      -0.08372155       0.28458964      -0.60621770
S       -0.95332763       1.46770908      -1.90377757       1.22036812       0.38515632       0.17693803
C        1.39514878      -1.55897043      -0.60438226       0.81884486      -1.38336524       0.24157866
C        0.83221199      -0.29064838       1.34566261      -0.07557737      -0.36256718      -0.35564664
C        0.64078663      -0.73883996      -1.41804872      -0.89190828       1.35347476       0.74395634
C       -0.02533082       0.38569074      -0.83601687       0.23686236      -0.95249813      -0.29368154
C        0.05723750       0.58366281       0.56183862      -0.13490766       1.30324881      -0.27165798
C        1.49238207      -1.37410901       0.79778981      -0.41534729       0.49303828      -0.86010541
N       -0.57130740       1.68625655       1.14434209       0.42654602       0.13902711      -0.16659435
C        2.28203430      -2.34082649       1.69588842      -0.72692346       0.03563043      -1.57296467
C       -0.82918379       3.52465417       2.67008116      -0.77228540       0.60246510       0.42918567
C       -0.32605479       2.10895314       2.55018427      -0.16490529      -0.45565290      -0.46153021
H        1.89106764      -2.40830991      -1.09426568      -0.13996193       0.45523679       0.47913967
H        0.89846846      -0.09970270       2.38584401       0.06788232       0.06222254       0.73358044
H       -0.89270446       2.43004991       0.48885674       0.53672516      -1.13967464       0.91168099
H       -0.19562719       4.13846638       2.06070735       0.21208156       0.50213344      -0.45619437
H       -1.88396427       3.66772082       2.33083191       0.81446806      -0.33260172       0.28784456
H       -0.74084232       3.93654158       3.68517353      -0.09887871      -0.37801201      -0.22980012
H       -0.87287674       1.43709805       3.23285725       0.27873804       0.16498735      -0.26413690
H        0.75417616       2.09631707       2.84327271      -0.74712809      -0.17016192      -0.46953951
4
Properties=species:S:1:pos:R:3:ref_forces:R:3 ref_energy=-211626.52669388434 pbc="F F F"
Br       1.74801852       1.20949157      -0.81688044      -0.86898315      -0.59911496       1.62653820
Br      -0.56115125       1.80716040       1.69584908       1.63080444      -1.63163167      -1.14054030
Br       0.59771077      -1.35135911       0.89169796       0.34231825       1.22641079       0.29000273
N        0.33213078       0.45141598       0.34604230      -1.10939544       1.00439775      -0.77666311
40
Properties=species:S:1:pos:R:3:ref_forces:R:3 ref_energy=-26596.649890434433 pbc="F F F"
O        3.30709960      -0.33354840       2.30189099       0.27898870      -1.18171192       0.42732323
O        0.10945406       1.05468776      -0.93759785       0.03518304       0.32709231       0.46520238
O        0.08986762       4.64276030       0.97527431       2.08109932       0.90738140       0.74372233
O       -0.29422376       1.85960748       1.07222440      -2.58035237       3.09069450       1.89785070
C        2.99033048      -0.84429274       1.23913779      -0.88500549       1.70712235       0.96916656
C        0.46929909       1.42033365       0.16887250       3.04751560      -2.32825251      -3.81011669
C       -0.98467991       4.27563621       0.66582849      -0.97817136      -2.08237388      -0.88446737
C        2.59722283      -4.52958057       1.95917513       1.39173268       0.23626937      -2.02203278
C        3.24717047      -5.03017184       0.78508761      -2.86499362       0.12891295       2.51972419
C        2.41499116      -3.17041633       2.02804508       1.20689843       0.96095466      -0.16809095
C        3.49035551      -4.25514266      -0.31201211       0.75907107      -3.08313272      -1.17610406
C        2.93999006      -2.34531853       0.98844876      -0.43077293      -0.34537487      -0.92930872
C        3.34874274      -2.93332050      -0.27685646       0.75799336       2.95287041       2.25360024
N        2.50911810       0.01013806       0.27794396      -0.05311174      -0.10267521       0.32965254
C        3.82308747      -2.11473963      -1.44379387       0.39926502       1.79095130       2.17990593
C        1.94321873       1.36656930       0.53754530       0.65799735      -0.77874100       0.11073552
C       -2.13113067       5.18203451       0.31007696       0.69415301       0.91318477       0.36164775
C       -1.30770014       2.75109675       0.53138214      -1.82140500       0.83048435       2.31356746
C       -3.43962166       4.79154207       0.92383005      -1.38831284      -0.98848793       0.98124836
C       -2.62001774       2.55085685       1.30378069      -0.42200979      -1.84408893      -0.15184871
C       -3.79357860       3.27317955       0.69720125       0.73120882       1.15126007      -0.20389038
H        2.33872237      -5.19368693       2.76619413      -0.18084701      -0.04575450      -0.02475147
H        3.08040001      -6.06156013       0.79831644       1.00061892      -1.73760120      -0.80414191
H        2.02259554      -2.77760027       2.95841219       0.04564658       0.52913460      -0.31769851
H        3.84437229      -4.73585364      -1.24520192      -0.25680970       0.30555127       0.69342347
H        2.36532810      -0.47139070      -0.57337759      -0.83666339       0.64775099      -0.84754253
H        2.92537071      -1.55688713      -1.66093872       0.40211120       0.49563635      -1.27008369
H        4.22621777      -2.64220712      -2.24947689      -0.10317852      -1.24087357      -1.26284003
H        4.70203258      -1.44992469      -1.16422174      -1.44120902      -0.35319614      -0.02603946
H        2.04143479       1.68247213       1.57579460       0.33797202      -0.62913087      -0.07067949
H        2.47981133       2.12659302      -0.05164389      -0.33258282      -0.31406663       0.02819930
H       -2.22796390       5.11820366      -0.77679822       0.15241534       0.32086855      -0.01274308
H       -1.85559723       6.21701242       0.66644048      -0.16470804      -1.05965393      -0.83197800
H       -1.58366892       2.50010993      -0.45428697       0.37849781      -0.33472614      -1.27902972
H       -3.47793243       5.17799141       1.99357273      -0.14803323      -1.00336204      -1.21392411
H       -4.20623491       5.24340631       0.37238265      -1.08575615       1.51861395      -0.43443828
H       -2.61856982       2.92227127       2.33078112       0.58507825      -0.35879081       0.03936931
H       -2.85315535       1.47277405       1.30027302       0.41133101       0.29168471       0.29120780
H       -4.69096992       2.89129283       1.15475967      -0.36576947       0.52613832       0.74862686
H       -4.05410001       3.08216097      -0.36937795       0.98438147       0.17760454       0.38951824
42
Properties=species:S:1:pos:R:3:ref_forces:R:3 ref_energy=-32827.41063783053 pbc="F F F"
O        3.21057441       1.53443207      -0.00989697       0.90349354       0.72031742      -1.43934663
N       -0.15979776      -0.79903290      -2.04524491      -0.22698426       2.97999058       1.05979872
C       -1.14334808      -0.02105097      -1.55371926       1.97871119      -0.24993908       0.44778025
C        0.86746087       0.91817268      -0.85175178      -3.65304645       0.87494081       0.05329867
C        1.04643830      -0.13688503      -1.67120502       0.99169375      -2.05739646       0.39639524
C        1.73094108       0.65261728       2.34044923      -1.00166391      -0.36906359      -1.07222842
C        0.72192872       2.81419255       2.32563199      -0.34926355       0.77854871      -0.10408392
C        0.46593535       1.43205317       4.32799675       0.20502377       0.72638137      -1.45015912
C        1.46334817       1.86201765       1.66284277      -1.21862348       0.01716573       0.65308033
C        1.26127787       0.43624426       3.63989546      -0.62766809       0.91088529      -0.15427716
C        0.13552742       2.60690023       3.58959296       0.63534261      -0.49607725       0.52112979
N       -0.57990156       1.04588785      -0.77595923      -1.07928220      -1.46248086      -1.45328092
S        1.88073303       2.20033338      -0.10064468       0.91531976      -2.69469848       1.94555380
C       -2.64190529      -0.26033363      -1.92382882       2.38699796       1.29865929       2.15231404
C        1.41099962      -0.96340821       4.14959170       1.15491223      -0.67295539      -0.20291858
C       -0.81837247       3.68958118       4.06843378      -0.13728505      -0.42284472       1.97355171
C       -1.31042264       1.99413075       0.08037882      -0.89139661      -0.74677058      -1.88646843
C        2.44258227      -2.19949863      -1.37788151      -2.01626044      -2.22029455      -0.73342041
C        2.21650531      -0.99763749      -3.57001111       3.83563731       0.11271218      -0.05537461
C        2.33757677      -0.82699642      -2.08133362      -1.30315506      -1.27986937       0.32244861
H        2.00233926      -0.26750825       1.77603032       0.43973496       1.09994088       0.41518380
H        0.52754841       3.76456644       1.79232850      -0.06802793      -0.60132417       0.46017135
H        0.05520662       1.36484518       5.36593248       0.51297905      -0.45901925      -1.14642724
H       -2.76780150      -1.17586134      -2.42311356       0.14424800      -1.23558394      -0.33545293
H       -3.24244044      -0.19949017      -1.01337180      -0.20464506       0.09068396      -0.41799998
H       -2.82437060       0.51215197      -2.62140248      -0.86985691       0.93659735      -0.56019245
H        2.40201117      -1.46362016       3.90695717      -1.09731764       0.94504405       0.22100256
H        0.65358590      -1.61322901       3.70339157      -0.07668958       0.13142241       0.25550222
H        1.31569263      -0.93239961       5.21303846      -0.19692562      -0.42613571       0.72868629
H       -0.27417568       4.61297323       4.32309033      -0.26997753      -0.22377575      -0.43116909
H       -1.37024698       3.42564394       5.02237226       0.79251719      -0.03195654      -1.00308732
H       -1.61065433       3.87039282       3.35472967       0.10701826       0.23861275      -0.35891713
H       -0.85884271       2.93635228      -0.04715643       0.42737715       1.25907260      -0.01743465
H       -1.19984398       1.68667915       1.06931462      -0.08021102      -0.34964581       1.66700307
H       -2.39526365       2.11726930      -0.16827098       1.06427290      -0.51190436      -0.08970884
H        2.52648427      -2.12100289      -0.30741242       0.02570883       0.22332643       0.38767281
H        3.21525480      -2.90576837      -1.71134136       0.46197157       0.90636277      -0.17668602
H        1.53310074      -2.89451597      -1.58865402       1.00576267       1.59314540       0.43018068
H        2.22744705      -0.05610756      -4.08147523       0.33239712       0.67081913      -0.22446608
H        3.12879064      -1.58339522      -3.84317682      -0.76262661       0.44165645      -0.43584435
H        1.37606080      -1.46412740      -3.91626308      -2.14835476      -1.55098358      -0.34102951
H        3.26747920      -0.37012527      -1.80344102      -0.05054388       1.10530761      -0.00450282
